/*--------------------------------*- C++ -*----------------------------------*\
| =========                 |                                                 |
| \\      /  F ield         | OpenFOAM: The Open Source CFD Toolbox           |
|  \\    /   O peration     | Version:  2306                                  |
|   \\  /    A nd           | Website:  www.openfoam.com                      |
|    \\/     M anipulation  |                                                 |
\*---------------------------------------------------------------------------*/
FoamFile
{
    version     2.0;
    format      ascii;
    arch        "LSB;label=32;scalar=64";
    class       polyBoundaryMesh;
    location    "constant/polyMesh";
    object      boundary;
}
// * * * * * * * * * * * * * * * * * * * * * * * * * * * * * * * * * * * * * //

4
(
    closed
    {
        type            wall;
        inGroups        1(wall);
        nFaces          0;
        startFace       529;
    }
    open
    {
        type            path;
        nFaces          1;
        startFace       529;
        faces           ( ( v300 v310 v311 v301 ) );
    }
    sides
    {
        type            empty;
        inGroups        1(empty);
        nFaces          2120;
        startFace       530;
    }
    procBoundary5to4
    {
        type            processor;
        inGroups        1(processor);
        nFaces          1;
        startFace       2650;
        matchTolerance  0.0001;
        transform       unknown;
        myProcNo        5;
        neighbProcNo    4;
    }
)

// ************************************************************************* //
